*HEADING
cubit(ers/Imran Khan/OneDrive/Desktop/Crack_domain0.015/abc.inp): 07/07/2023: 18
version: 2023.4
**
********************************** P A R T S **********************************
*PART, NAME=Part-Default
**
********************************** N O D E S **********************************
*NODE, NSET=ALLNODES, INPUT=C:/Users/Imran Khan/OneDrive/Desktop/Crack_domain0.015/nodes_cd.dat
**
********************************** E L E M E N T S ****************************
*ELEMENT, TYPE=S4R, ELSET=EB1, INPUT=C:/Users/Imran Khan/OneDrive/Desktop/Crack_domain0.015/elements_cd.dat
**
********************************** N O D E S E T S **********************************
*NSET, NSET=NS1
       1,       2,       3,       4,       5,       6,
       7,       8,       9,      10,      11,      12,
      13,      14,      15,      16,      17,      18,
      19,      20,      21,      22,      23,      24,
      25,      26,      27,      28,      29,      30,
      31,      32,      33,      34,      35,      36,
      37,      38,      39,      40,      41,      42,
      43,      44,      45,      46,      47,      48,
      49,      50,      51,      52,      53,      54,
      55,      56,      57,      58,      59,      60,
      61,      62,      63,      64,      65,      66,
      67,      68,
*NSET, NSET=NS2
     136,     263,     264,     265,     266,     267,
     268,     269,
**
********************************** P R O P E R T I E S ************************
*SHELL SECTION, ELSET=EB1, SECTION INTEGRATION=SIMPSON, MATERIAL=Default-Steel
1
**
*END PART
**
**
**
********************************** E N D   P A R T S **********************************
**
**
********************************** A S S E M B L Y ************************************
**
*ASSEMBLY, NAME=ASSEMBLY1
**
*INSTANCE, NAME=Part-Default_1, PART=Part-Default
*END INSTANCE
**
*END ASSEMBLY
**
**
**
*MATERIAL, NAME = Default-Steel
*ELASTIC, TYPE=ISOTROPIC
206800, 0.29
*DENSITY
7e-06
*CONDUCTIVITY,TYPE=ISO
0.045
*SPECIFIC HEAT
500
**
**
************************************** H I S T O R Y *************************************
**
*PREPRINT
**
**************************************** S T E P 1 ***************************************
*STEP,INC=100,NAME=Default Set
**
*STATIC
1, 1, 1e-05, 1
**
**
*BOUNDARY,TYPE=DISPLACEMENT, OP=MOD
Part-Default_1.NS1, 1, , 0
Part-Default_1.NS1, 2, , 0
Part-Default_1.NS1, 3, , 0
Part-Default_1.NS1, 4, , 0
Part-Default_1.NS1, 5, , 0
Part-Default_1.NS1, 6, , 0
*BOUNDARY,TYPE=DISPLACEMENT, OP=MOD
Part-Default_1.NS2, 1, , 0
Part-Default_1.NS2, 2, , 0
Part-Default_1.NS2, 3, , 0
Part-Default_1.NS2, 4, , 0
Part-Default_1.NS2, 5, , 0
Part-Default_1.NS2, 6, , 0
**
**
**
*END STEP
